
OS:Version,
  {2e1750d7-ce72-4dfa-b4c8-69d7288842cb}, !- Handle
  3.8.0;                                  !- Version Identifier

OS:Building,
  {07d9c907-bda0-4991-afcc-f9c3a49b114d}, !- Handle
  Model 1,                                !- Name
  ,                                       !- Building Sector Type
  ,                                       !- North Axis {deg}
  ,                                       !- Nominal Floor to Floor Height {m}
  ,                                       !- Space Type Name
  {2087803c-0713-4402-b766-66e430cbf035}, !- Default Construction Set Name
  ;                                       !- Default Schedule Set Name

OS:YearDescription,
  {6c3bb19b-7cfc-4144-ab10-98e805bf8439}, !- Handle
  ,                                       !- Calendar Year
  Sunday;                                 !- Day of Week for Start Day

OS:ScheduleTypeLimits,
  {90720b8a-9b8b-4caf-9ee8-9aee84c0b5a7}, !- Handle
  Fractional,                             !- Name
  0,                                      !- Lower Limit Value
  1,                                      !- Upper Limit Value
  Continuous,                             !- Numeric Type
  Dimensionless;                          !- Unit Type

OS:Schedule:Ruleset,
  {b9780263-f73a-41e5-b022-c6e6a25b68d9}, !- Handle
  Always On,                              !- Name
  {90720b8a-9b8b-4caf-9ee8-9aee84c0b5a7}, !- Schedule Type Limits Name
  {e73ed31f-5faf-430d-b2e1-c5688fb206dd}; !- Default Day Schedule Name

OS:Schedule:Day,
  {e73ed31f-5faf-430d-b2e1-c5688fb206dd}, !- Handle
  Always On_Day Schedule,                 !- Name
  {90720b8a-9b8b-4caf-9ee8-9aee84c0b5a7}, !- Schedule Type Limits Name
  ,                                       !- Interpolate to Timestep
  24,                                     !- Hour 1
  0,                                      !- Minute 1
  1;                                      !- Value Until Time 1

OS:WindowMaterial:Glazing,
  {e3359438-cf23-4f7d-b5b7-015b7587743a}, !- Handle
  Generic Clear Glass,                    !- Name
  SpectralAverage,                        !- Optical Data Type
  ,                                       !- Window Glass Spectral Data Set Name
  0.006,                                  !- Thickness {m}
  0.77,                                   !- Solar Transmittance at Normal Incidence
  0.07,                                   !- Front Side Solar Reflectance at Normal Incidence
  0.07,                                   !- Back Side Solar Reflectance at Normal Incidence
  0.88,                                   !- Visible Transmittance at Normal Incidence
  0.08,                                   !- Front Side Visible Reflectance at Normal Incidence
  0.08,                                   !- Back Side Visible Reflectance at Normal Incidence
  0,                                      !- Infrared Transmittance at Normal Incidence
  0.84,                                   !- Front Side Infrared Hemispherical Emissivity
  0.84,                                   !- Back Side Infrared Hemispherical Emissivity
  1,                                      !- Conductivity {W/m-K}
  1,                                      !- Dirt Correction Factor for Solar and Visible Transmittance
  No;                                     !- Solar Diffusing

OS:Material,
  {9c05710b-ebb0-4d9e-b705-1cfcb66dd4b2}, !- Handle
  Generic Acoustic Tile,                  !- Name
  MediumSmooth,                           !- Roughness
  0.02,                                   !- Thickness {m}
  0.06,                                   !- Conductivity {W/m-K}
  368,                                    !- Density {kg/m3}
  590,                                    !- Specific Heat {J/kg-K}
  0.9,                                    !- Thermal Absorptance
  0.2,                                    !- Solar Absorptance
  0.2;                                    !- Visible Absorptance

OS:WindowMaterial:Glazing,
  {54791839-d0e5-4e41-8c3e-400a358e259c}, !- Handle
  Generic Low-e Glass,                    !- Name
  SpectralAverage,                        !- Optical Data Type
  ,                                       !- Window Glass Spectral Data Set Name
  0.006,                                  !- Thickness {m}
  0.45,                                   !- Solar Transmittance at Normal Incidence
  0.36,                                   !- Front Side Solar Reflectance at Normal Incidence
  0.36,                                   !- Back Side Solar Reflectance at Normal Incidence
  0.71,                                   !- Visible Transmittance at Normal Incidence
  0.21,                                   !- Front Side Visible Reflectance at Normal Incidence
  0.21,                                   !- Back Side Visible Reflectance at Normal Incidence
  0,                                      !- Infrared Transmittance at Normal Incidence
  0.84,                                   !- Front Side Infrared Hemispherical Emissivity
  0.047,                                  !- Back Side Infrared Hemispherical Emissivity
  1,                                      !- Conductivity {W/m-K}
  1,                                      !- Dirt Correction Factor for Solar and Visible Transmittance
  No;                                     !- Solar Diffusing

OS:Material,
  {d08d0fff-b0bc-44b4-980c-2a3ccd8f2e2f}, !- Handle
  Generic 25mm Wood,                      !- Name
  MediumSmooth,                           !- Roughness
  0.0254,                                 !- Thickness {m}
  0.15,                                   !- Conductivity {W/m-K}
  608,                                    !- Density {kg/m3}
  1630,                                   !- Specific Heat {J/kg-K}
  0.9,                                    !- Thermal Absorptance
  0.5,                                    !- Solar Absorptance
  0.5;                                    !- Visible Absorptance

OS:Material,
  {8fbd17cd-8ee5-4789-94de-5757be2518a9}, !- Handle
  Generic 50mm Insulation,                !- Name
  MediumRough,                            !- Roughness
  0.05,                                   !- Thickness {m}
  0.03,                                   !- Conductivity {W/m-K}
  43,                                     !- Density {kg/m3}
  1210,                                   !- Specific Heat {J/kg-K}
  0.9,                                    !- Thermal Absorptance
  0.7,                                    !- Solar Absorptance
  0.7;                                    !- Visible Absorptance

OS:Material,
  {a01d418b-7f60-413b-92e0-8bed7187aeaf}, !- Handle
  Generic HW Concrete,                    !- Name
  MediumRough,                            !- Roughness
  0.2,                                    !- Thickness {m}
  1.95,                                   !- Conductivity {W/m-K}
  2240,                                   !- Density {kg/m3}
  900,                                    !- Specific Heat {J/kg-K}
  0.9,                                    !- Thermal Absorptance
  0.8,                                    !- Solar Absorptance
  0.8;                                    !- Visible Absorptance

OS:Material,
  {5a98eeeb-29a9-4c8f-9f4c-6d58ca8ad50b}, !- Handle
  Generic Painted Metal,                  !- Name
  Smooth,                                 !- Roughness
  0.0015,                                 !- Thickness {m}
  45,                                     !- Conductivity {W/m-K}
  7690,                                   !- Density {kg/m3}
  410,                                    !- Specific Heat {J/kg-K}
  0.9,                                    !- Thermal Absorptance
  0.5,                                    !- Solar Absorptance
  0.5;                                    !- Visible Absorptance

OS:Material,
  {af37178b-7e7b-43b0-ae97-52ee1e094bae}, !- Handle
  Generic Brick,                          !- Name
  MediumRough,                            !- Roughness
  0.1,                                    !- Thickness {m}
  0.9,                                    !- Conductivity {W/m-K}
  1920,                                   !- Density {kg/m3}
  790,                                    !- Specific Heat {J/kg-K}
  0.9,                                    !- Thermal Absorptance
  0.65,                                   !- Solar Absorptance
  0.65;                                   !- Visible Absorptance

OS:Material,
  {112460ce-dfd3-40ec-aeb0-843350c2a129}, !- Handle
  Generic Ceiling Air Gap,                !- Name
  Smooth,                                 !- Roughness
  0.1,                                    !- Thickness {m}
  0.556,                                  !- Conductivity {W/m-K}
  1.28,                                   !- Density {kg/m3}
  1000,                                   !- Specific Heat {J/kg-K}
  0.9,                                    !- Thermal Absorptance
  0.7,                                    !- Solar Absorptance
  0.7;                                    !- Visible Absorptance

OS:Material,
  {85d05f32-26ab-4bbe-a815-5386aa19d6a8}, !- Handle
  Generic Wall Air Gap,                   !- Name
  Smooth,                                 !- Roughness
  0.1,                                    !- Thickness {m}
  0.667,                                  !- Conductivity {W/m-K}
  1.28,                                   !- Density {kg/m3}
  1000,                                   !- Specific Heat {J/kg-K}
  0.9,                                    !- Thermal Absorptance
  0.7,                                    !- Solar Absorptance
  0.7;                                    !- Visible Absorptance

OS:Material,
  {654cdb3a-a03a-4dd6-b6cd-6670b098cdf6}, !- Handle
  Generic Roof Membrane,                  !- Name
  MediumRough,                            !- Roughness
  0.01,                                   !- Thickness {m}
  0.16,                                   !- Conductivity {W/m-K}
  1120,                                   !- Density {kg/m3}
  1460,                                   !- Specific Heat {J/kg-K}
  0.9,                                    !- Thermal Absorptance
  0.65,                                   !- Solar Absorptance
  0.65;                                   !- Visible Absorptance

OS:WindowMaterial:Gas,
  {0c495765-427c-4ff1-ae00-44e88f485ad0}, !- Handle
  Generic Window Air Gap,                 !- Name
  Air,                                    !- Gas Type
  0.0127;                                 !- Thickness {m}

OS:Material,
  {30407893-70da-4c55-b6a7-bc9976175e8b}, !- Handle
  Generic 25mm Insulation,                !- Name
  MediumRough,                            !- Roughness
  0.025,                                  !- Thickness {m}
  0.03,                                   !- Conductivity {W/m-K}
  43,                                     !- Density {kg/m3}
  1210,                                   !- Specific Heat {J/kg-K}
  0.9,                                    !- Thermal Absorptance
  0.7,                                    !- Solar Absorptance
  0.7;                                    !- Visible Absorptance

OS:Material,
  {e2686792-eb21-4cb2-84a9-f1ce28a07461}, !- Handle
  Generic LW Concrete,                    !- Name
  MediumRough,                            !- Roughness
  0.1,                                    !- Thickness {m}
  0.53,                                   !- Conductivity {W/m-K}
  1280,                                   !- Density {kg/m3}
  840,                                    !- Specific Heat {J/kg-K}
  0.9,                                    !- Thermal Absorptance
  0.8,                                    !- Solar Absorptance
  0.8;                                    !- Visible Absorptance

OS:Material,
  {c2aeb56f-7525-44da-b971-17c6aee99fb9}, !- Handle
  Generic Gypsum Board,                   !- Name
  MediumSmooth,                           !- Roughness
  0.0127,                                 !- Thickness {m}
  0.16,                                   !- Conductivity {W/m-K}
  800,                                    !- Density {kg/m3}
  1090,                                   !- Specific Heat {J/kg-K}
  0.9,                                    !- Thermal Absorptance
  0.5,                                    !- Solar Absorptance
  0.5;                                    !- Visible Absorptance

OS:Construction,
  {057b16fa-1de5-4a72-9211-1e8e111c52cf}, !- Handle
  Generic Roof,                           !- Name
  ,                                       !- Surface Rendering Name
  {654cdb3a-a03a-4dd6-b6cd-6670b098cdf6}, !- Layer 1
  {8fbd17cd-8ee5-4789-94de-5757be2518a9}, !- Layer 2
  {e2686792-eb21-4cb2-84a9-f1ce28a07461}, !- Layer 3
  {112460ce-dfd3-40ec-aeb0-843350c2a129}, !- Layer 4
  {9c05710b-ebb0-4d9e-b705-1cfcb66dd4b2}; !- Layer 5

OS:Construction,
  {2deb9349-a50a-4ea6-b563-153b1885b11f}, !- Handle
  Generic Double Pane,                    !- Name
  ,                                       !- Surface Rendering Name
  {54791839-d0e5-4e41-8c3e-400a358e259c}, !- Layer 1
  {0c495765-427c-4ff1-ae00-44e88f485ad0}, !- Layer 2
  {e3359438-cf23-4f7d-b5b7-015b7587743a}; !- Layer 3

OS:Construction,
  {61053de9-caa1-4afa-9bec-9c79a23da0c3}, !- Handle
  Generic Underground Wall,               !- Name
  ,                                       !- Surface Rendering Name
  {8fbd17cd-8ee5-4789-94de-5757be2518a9}, !- Layer 1
  {a01d418b-7f60-413b-92e0-8bed7187aeaf}, !- Layer 2
  {85d05f32-26ab-4bbe-a815-5386aa19d6a8}, !- Layer 3
  {c2aeb56f-7525-44da-b971-17c6aee99fb9}; !- Layer 4

OS:Construction,
  {66616e63-254e-45a9-93d1-c5c6d22302da}, !- Handle
  Generic Interior Door,                  !- Name
  ,                                       !- Surface Rendering Name
  {d08d0fff-b0bc-44b4-980c-2a3ccd8f2e2f}; !- Layer 1

OS:Construction,
  {b0d576e9-e091-4304-ac38-76f2a4df8971}, !- Handle
  Generic Interior Floor,                 !- Name
  ,                                       !- Surface Rendering Name
  {9c05710b-ebb0-4d9e-b705-1cfcb66dd4b2}, !- Layer 1
  {112460ce-dfd3-40ec-aeb0-843350c2a129}, !- Layer 2
  {e2686792-eb21-4cb2-84a9-f1ce28a07461}; !- Layer 3

OS:Construction,
  {e7184af5-e60a-43a8-9265-ea29bd873f8b}, !- Handle
  Generic Interior Wall,                  !- Name
  ,                                       !- Surface Rendering Name
  {c2aeb56f-7525-44da-b971-17c6aee99fb9}, !- Layer 1
  {85d05f32-26ab-4bbe-a815-5386aa19d6a8}, !- Layer 2
  {c2aeb56f-7525-44da-b971-17c6aee99fb9}; !- Layer 3

OS:Construction,
  {7a10da97-1392-4a8b-bae2-0560370b73bc}, !- Handle
  Generic Shade,                          !- Name
  ,                                       !- Surface Rendering Name
  {1fa50e66-696d-4e4f-ad90-504c0f88f9c6}; !- Layer 1

OS:Material,
  {1fa50e66-696d-4e4f-ad90-504c0f88f9c6}, !- Handle
  Material 1,                             !- Name
  Smooth,                                 !- Roughness
  0.1,                                    !- Thickness {m}
  0.1,                                    !- Conductivity {W/m-K}
  0.1,                                    !- Density {kg/m3}
  1400,                                   !- Specific Heat {J/kg-K}
  ,                                       !- Thermal Absorptance
  0.65,                                   !- Solar Absorptance
  0.65;                                   !- Visible Absorptance

OS:Construction,
  {72088f87-3e17-4e90-952b-898ffda73b4a}, !- Handle
  Generic Exterior Wall,                  !- Name
  ,                                       !- Surface Rendering Name
  {af37178b-7e7b-43b0-ae97-52ee1e094bae}, !- Layer 1
  {e2686792-eb21-4cb2-84a9-f1ce28a07461}, !- Layer 2
  {8fbd17cd-8ee5-4789-94de-5757be2518a9}, !- Layer 3
  {85d05f32-26ab-4bbe-a815-5386aa19d6a8}, !- Layer 4
  {c2aeb56f-7525-44da-b971-17c6aee99fb9}; !- Layer 5

OS:Construction,
  {39b4d8bb-e76d-4be1-86db-4577cb94e535}, !- Handle
  Generic Interior Ceiling,               !- Name
  ,                                       !- Surface Rendering Name
  {e2686792-eb21-4cb2-84a9-f1ce28a07461}, !- Layer 1
  {112460ce-dfd3-40ec-aeb0-843350c2a129}, !- Layer 2
  {9c05710b-ebb0-4d9e-b705-1cfcb66dd4b2}; !- Layer 3

OS:Construction,
  {613fec1f-eff1-425a-8faa-48c849261894}, !- Handle
  Generic Underground Roof,               !- Name
  ,                                       !- Surface Rendering Name
  {8fbd17cd-8ee5-4789-94de-5757be2518a9}, !- Layer 1
  {a01d418b-7f60-413b-92e0-8bed7187aeaf}, !- Layer 2
  {112460ce-dfd3-40ec-aeb0-843350c2a129}, !- Layer 3
  {9c05710b-ebb0-4d9e-b705-1cfcb66dd4b2}; !- Layer 4

OS:Construction:AirBoundary,
  {7b951e1b-bc97-4540-b93f-cf6076dc2bf6}, !- Handle
  Generic Air Boundary,                   !- Name
  None,                                   !- Air Exchange Method
  0;                                      !- Simple Mixing Air Changes per Hour {1/hr}

OS:Construction,
  {e4e6f785-fefe-45c1-bac5-9b54836baf28}, !- Handle
  Generic Exterior Door,                  !- Name
  ,                                       !- Surface Rendering Name
  {5a98eeeb-29a9-4c8f-9f4c-6d58ca8ad50b}, !- Layer 1
  {30407893-70da-4c55-b6a7-bc9976175e8b}, !- Layer 2
  {5a98eeeb-29a9-4c8f-9f4c-6d58ca8ad50b}; !- Layer 3

OS:Construction,
  {90e6dcd8-2e6b-4a62-9b1d-180c48550022}, !- Handle
  Generic Ground Slab,                    !- Name
  ,                                       !- Surface Rendering Name
  {8fbd17cd-8ee5-4789-94de-5757be2518a9}, !- Layer 1
  {a01d418b-7f60-413b-92e0-8bed7187aeaf}; !- Layer 2

OS:Construction,
  {57c667b8-cea9-47b4-a760-53a68eb00696}, !- Handle
  Generic Single Pane,                    !- Name
  ,                                       !- Surface Rendering Name
  {e3359438-cf23-4f7d-b5b7-015b7587743a}; !- Layer 1

OS:Construction,
  {1a61f2a8-6399-4c49-b686-ec226cacb819}, !- Handle
  Generic Exposed Floor,                  !- Name
  ,                                       !- Surface Rendering Name
  {5a98eeeb-29a9-4c8f-9f4c-6d58ca8ad50b}, !- Layer 1
  {112460ce-dfd3-40ec-aeb0-843350c2a129}, !- Layer 2
  {8fbd17cd-8ee5-4789-94de-5757be2518a9}, !- Layer 3
  {e2686792-eb21-4cb2-84a9-f1ce28a07461}; !- Layer 4

OS:DefaultConstructionSet,
  {2087803c-0713-4402-b766-66e430cbf035}, !- Handle
  Default Generic Construction Set,       !- Name
  {654dd846-ced2-413e-bcfa-da6c9bc5c7b3}, !- Default Exterior Surface Constructions Name
  {9d0478b8-fc58-4f37-96b7-41f13775d045}, !- Default Interior Surface Constructions Name
  {f3f61c18-c7ba-4b35-9965-ad275c14d4f0}, !- Default Ground Contact Surface Constructions Name
  {6bce6662-e35a-4551-83a3-67cf60ace61a}, !- Default Exterior SubSurface Constructions Name
  {fb5129a6-6df4-4198-96a9-5778420a0e6e}, !- Default Interior SubSurface Constructions Name
  ,                                       !- Interior Partition Construction Name
  {7a10da97-1392-4a8b-bae2-0560370b73bc}, !- Space Shading Construction Name
  ,                                       !- Building Shading Construction Name
  ,                                       !- Site Shading Construction Name
  {e7184af5-e60a-43a8-9265-ea29bd873f8b}; !- Adiabatic Surface Construction Name

OS:DefaultSurfaceConstructions,
  {9d0478b8-fc58-4f37-96b7-41f13775d045}, !- Handle
  Default Surface Constructions 1,        !- Name
  {b0d576e9-e091-4304-ac38-76f2a4df8971}, !- Floor Construction Name
  {e7184af5-e60a-43a8-9265-ea29bd873f8b}, !- Wall Construction Name
  {39b4d8bb-e76d-4be1-86db-4577cb94e535}; !- Roof Ceiling Construction Name

OS:DefaultSurfaceConstructions,
  {654dd846-ced2-413e-bcfa-da6c9bc5c7b3}, !- Handle
  Default Surface Constructions 2,        !- Name
  {1a61f2a8-6399-4c49-b686-ec226cacb819}, !- Floor Construction Name
  {72088f87-3e17-4e90-952b-898ffda73b4a}, !- Wall Construction Name
  {057b16fa-1de5-4a72-9211-1e8e111c52cf}; !- Roof Ceiling Construction Name

OS:DefaultSurfaceConstructions,
  {f3f61c18-c7ba-4b35-9965-ad275c14d4f0}, !- Handle
  Default Surface Constructions 3,        !- Name
  {90e6dcd8-2e6b-4a62-9b1d-180c48550022}, !- Floor Construction Name
  {61053de9-caa1-4afa-9bec-9c79a23da0c3}, !- Wall Construction Name
  {613fec1f-eff1-425a-8faa-48c849261894}; !- Roof Ceiling Construction Name

OS:DefaultSubSurfaceConstructions,
  {fb5129a6-6df4-4198-96a9-5778420a0e6e}, !- Handle
  Default Sub Surface Constructions 1,    !- Name
  {57c667b8-cea9-47b4-a760-53a68eb00696}, !- Fixed Window Construction Name
  {57c667b8-cea9-47b4-a760-53a68eb00696}, !- Operable Window Construction Name
  {66616e63-254e-45a9-93d1-c5c6d22302da}, !- Door Construction Name
  {57c667b8-cea9-47b4-a760-53a68eb00696}, !- Glass Door Construction Name
  {66616e63-254e-45a9-93d1-c5c6d22302da}, !- Overhead Door Construction Name
  {57c667b8-cea9-47b4-a760-53a68eb00696}, !- Skylight Construction Name
  ,                                       !- Tubular Daylight Dome Construction Name
  ;                                       !- Tubular Daylight Diffuser Construction Name

OS:DefaultSubSurfaceConstructions,
  {6bce6662-e35a-4551-83a3-67cf60ace61a}, !- Handle
  Default Sub Surface Constructions 2,    !- Name
  {2deb9349-a50a-4ea6-b563-153b1885b11f}, !- Fixed Window Construction Name
  {2deb9349-a50a-4ea6-b563-153b1885b11f}, !- Operable Window Construction Name
  {e4e6f785-fefe-45c1-bac5-9b54836baf28}, !- Door Construction Name
  {2deb9349-a50a-4ea6-b563-153b1885b11f}, !- Glass Door Construction Name
  {e4e6f785-fefe-45c1-bac5-9b54836baf28}, !- Overhead Door Construction Name
  {2deb9349-a50a-4ea6-b563-153b1885b11f}, !- Skylight Construction Name
  ,                                       !- Tubular Daylight Dome Construction Name
  ;                                       !- Tubular Daylight Diffuser Construction Name

OS:StandardsInformation:Construction,
  {023bc492-8eb6-4c82-86fe-96419f12a4bd}, !- Handle
  {2deb9349-a50a-4ea6-b563-153b1885b11f}, !- Construction Name
  ExteriorWindow,                         !- Intended Surface Type
  ,                                       !- Standards Construction Type
  ,                                       !- Perturbable Layer
  ,                                       !- Perturbable Layer Type
  ,                                       !- Other Perturbable Layer Type
  ,                                       !- Construction Standard
  ,                                       !- Construction Standard Source
  Fixed Window,                           !- Fenestration Type
  ,                                       !- Fenestration Assembly Context
  ,                                       !- Fenestration Number of Panes
  Non-Metal Framing;                      !- Fenestration Frame Type

OS:StandardsInformation:Construction,
  {5a75287a-41db-40f2-82e8-912774e46135}, !- Handle
  {e4e6f785-fefe-45c1-bac5-9b54836baf28}, !- Construction Name
  ExteriorDoor;                           !- Intended Surface Type

OS:DefaultConstructionSet,
  {a725f6fc-f359-425c-bebe-a5b25fc3db33}, !- Handle
  Default Generic Construction Set 1,     !- Name
  {7c6dc062-e8d8-430c-9550-858339b0603f}, !- Default Exterior Surface Constructions Name
  {5af6c37f-2cd4-41a8-9e41-16e7b18730c9}, !- Default Interior Surface Constructions Name
  {0f545be6-a2a6-4fb3-a07d-ed3d1574159a}, !- Default Ground Contact Surface Constructions Name
  {d5320eae-55a0-42a5-87d5-9bd815c4bd96}, !- Default Exterior SubSurface Constructions Name
  {a2ee13e5-9b67-413f-9541-26fd64c0d2c2}, !- Default Interior SubSurface Constructions Name
  ,                                       !- Interior Partition Construction Name
  {7a10da97-1392-4a8b-bae2-0560370b73bc}, !- Space Shading Construction Name
  ,                                       !- Building Shading Construction Name
  ,                                       !- Site Shading Construction Name
  {e7184af5-e60a-43a8-9265-ea29bd873f8b}; !- Adiabatic Surface Construction Name

OS:DefaultSurfaceConstructions,
  {5af6c37f-2cd4-41a8-9e41-16e7b18730c9}, !- Handle
  Default Surface Constructions 4,        !- Name
  {b0d576e9-e091-4304-ac38-76f2a4df8971}, !- Floor Construction Name
  {e7184af5-e60a-43a8-9265-ea29bd873f8b}, !- Wall Construction Name
  {39b4d8bb-e76d-4be1-86db-4577cb94e535}; !- Roof Ceiling Construction Name

OS:DefaultSurfaceConstructions,
  {7c6dc062-e8d8-430c-9550-858339b0603f}, !- Handle
  Default Surface Constructions 5,        !- Name
  {1a61f2a8-6399-4c49-b686-ec226cacb819}, !- Floor Construction Name
  {72088f87-3e17-4e90-952b-898ffda73b4a}, !- Wall Construction Name
  {057b16fa-1de5-4a72-9211-1e8e111c52cf}; !- Roof Ceiling Construction Name

OS:DefaultSurfaceConstructions,
  {0f545be6-a2a6-4fb3-a07d-ed3d1574159a}, !- Handle
  Default Surface Constructions 6,        !- Name
  {90e6dcd8-2e6b-4a62-9b1d-180c48550022}, !- Floor Construction Name
  {61053de9-caa1-4afa-9bec-9c79a23da0c3}, !- Wall Construction Name
  {613fec1f-eff1-425a-8faa-48c849261894}; !- Roof Ceiling Construction Name

OS:DefaultSubSurfaceConstructions,
  {a2ee13e5-9b67-413f-9541-26fd64c0d2c2}, !- Handle
  Default Sub Surface Constructions 3,    !- Name
  {57c667b8-cea9-47b4-a760-53a68eb00696}, !- Fixed Window Construction Name
  {57c667b8-cea9-47b4-a760-53a68eb00696}, !- Operable Window Construction Name
  {66616e63-254e-45a9-93d1-c5c6d22302da}, !- Door Construction Name
  {57c667b8-cea9-47b4-a760-53a68eb00696}, !- Glass Door Construction Name
  {66616e63-254e-45a9-93d1-c5c6d22302da}, !- Overhead Door Construction Name
  {57c667b8-cea9-47b4-a760-53a68eb00696}, !- Skylight Construction Name
  ,                                       !- Tubular Daylight Dome Construction Name
  ;                                       !- Tubular Daylight Diffuser Construction Name

OS:DefaultSubSurfaceConstructions,
  {d5320eae-55a0-42a5-87d5-9bd815c4bd96}, !- Handle
  Default Sub Surface Constructions 4,    !- Name
  {2deb9349-a50a-4ea6-b563-153b1885b11f}, !- Fixed Window Construction Name
  {2deb9349-a50a-4ea6-b563-153b1885b11f}, !- Operable Window Construction Name
  {e4e6f785-fefe-45c1-bac5-9b54836baf28}, !- Door Construction Name
  {2deb9349-a50a-4ea6-b563-153b1885b11f}, !- Glass Door Construction Name
  {e4e6f785-fefe-45c1-bac5-9b54836baf28}, !- Overhead Door Construction Name
  {2deb9349-a50a-4ea6-b563-153b1885b11f}, !- Skylight Construction Name
  ,                                       !- Tubular Daylight Dome Construction Name
  ;                                       !- Tubular Daylight Diffuser Construction Name

OS:Space,
  {89eac60a-0ed7-4c9f-abb3-7bc9eba81ae1}, !- Handle
  Room_50383581-0df4-4a83-bafb-ea6cc3265f8b-0002b3a0_Space, !- Name
  ,                                       !- Space Type Name
  {2087803c-0713-4402-b766-66e430cbf035}, !- Default Construction Set Name
  ,                                       !- Default Schedule Set Name
  ,                                       !- Direction of Relative North {deg}
  ,                                       !- X Origin {m}
  ,                                       !- Y Origin {m}
  ,                                       !- Z Origin {m}
  {7a0d83a9-9871-4910-9b46-6fa1ae46dd68}, !- Building Story Name
  {e4a0f4cb-a3bf-43e4-95e4-00a16ac9c8b2}; !- Thermal Zone Name

OS:AdditionalProperties,
  {e5246d2c-a927-4366-a953-1b15782d2527}, !- Handle
  {89eac60a-0ed7-4c9f-abb3-7bc9eba81ae1}, !- Object Name
  displayName,                            !- Feature Name 1
  String,                                 !- Feature Data Type 1
  101-Vest.;                              !- Feature Value 1

OS:Surface,
  {f291e6c2-18e4-4b3d-ac4f-f7e88b57e294}, !- Handle
  Room_50383581-0df4-4a83-bafb-ea6cc3265f8b-0002b3a0..Face0, !- Name
  Floor,                                  !- Surface Type
  ,                                       !- Construction Name
  {89eac60a-0ed7-4c9f-abb3-7bc9eba81ae1}, !- Space Name
  Ground,                                 !- Outside Boundary Condition
  ,                                       !- Outside Boundary Condition Object
  NoSun,                                  !- Sun Exposure
  NoWind,                                 !- Wind Exposure
  ,                                       !- View Factor to Ground
  ,                                       !- Number of Vertices
  -1.51654943934292, 22.3317907561918, 0, !- X,Y,Z Vertex 1 {m}
  -1.51654943934295, 6.06743861993783, 0, !- X,Y,Z Vertex 2 {m}
  -4.08579943934294, 6.06743861993784, 0, !- X,Y,Z Vertex 3 {m}
  -4.08579943934292, 22.3317907561918, 0; !- X,Y,Z Vertex 4 {m}

OS:AdditionalProperties,
  {811c220a-5464-4a1f-80ef-6fd3c0facc74}, !- Handle
  {f291e6c2-18e4-4b3d-ac4f-f7e88b57e294}, !- Object Name
  displayName,                            !- Feature Name 1
  String,                                 !- Feature Data Type 1
  Room_50383581-0df4-4a83-bafb-ea6cc3265f8b-0002b3a0..Face0; !- Feature Value 1

OS:Surface,
  {48ec3253-8737-4556-930c-99d4fec4564a}, !- Handle
  Room_50383581-0df4-4a83-bafb-ea6cc3265f8b-0002b3a0..Face1, !- Name
  Wall,                                   !- Surface Type
  ,                                       !- Construction Name
  {89eac60a-0ed7-4c9f-abb3-7bc9eba81ae1}, !- Space Name
  Outdoors,                               !- Outside Boundary Condition
  ,                                       !- Outside Boundary Condition Object
  SunExposed,                             !- Sun Exposure
  WindExposed,                            !- Wind Exposure
  ,                                       !- View Factor to Ground
  ,                                       !- Number of Vertices
  -4.08579943934292, 22.3317907561918, 3.8, !- X,Y,Z Vertex 1 {m}
  -4.08579943934292, 22.3317907561918, 0, !- X,Y,Z Vertex 2 {m}
  -4.08579943934294, 6.06743861993784, 0, !- X,Y,Z Vertex 3 {m}
  -4.08579943934294, 6.06743861993784, 3.8; !- X,Y,Z Vertex 4 {m}

OS:SubSurface,
  {d68b9552-d8a1-490d-8d57-bfc89c93c3a8}, !- Handle
  Room_50383581-0df4-4a83-bafb-ea6cc3265f8b-0002b3a0..Face1_Glz1, !- Name
  FixedWindow,                            !- Sub Surface Type
  ,                                       !- Construction Name
  {48ec3253-8737-4556-930c-99d4fec4564a}, !- Surface Name