
OS:Version,
  {ed231cbc-ff02-4e9d-ac13-332de70f38d9}, !- Handle
  3.9.0;                                  !- Version Identifier

OS:Building,
  {fb3b03b0-651c-441c-a553-2dc1d3d62603}, !- Handle
  Model 1,                                !- Name
  ,                                       !- Building Sector Type
  ,                                       !- North Axis {deg}
  ,                                       !- Nominal Floor to Floor Height {m}
  ,                                       !- Space Type Name
  ,                                       !- Default Construction Set Name
  ;                                       !- Default Schedule Set Name

OS:Space,
  {8f0eea63-6022-452f-87fb-49bff31905e3}, !- Handle
  Room_50383581-0df4-4a83-bafb-ea6cc3265f8b-0002b3a0_Space, !- Name
  ,                                       !- Space Type Name
  ,                                       !- Default Construction Set Name
  ,                                       !- Default Schedule Set Name
  ,                                       !- Direction of Relative North {deg}
  ,                                       !- X Origin {m}
  ,                                       !- Y Origin {m}
  ,                                       !- Z Origin {m}
  {64e83f50-a04a-4e62-94d3-3329a1e06e86}, !- Building Story Name
  {b9a0e68c-0d51-4c34-9a9d-1e5df2ad163e}; !- Thermal Zone Name

OS:ThermalZone,
  {b9a0e68c-0d51-4c34-9a9d-1e5df2ad163e}, !- Handle
  Room_50383581-0df4-4a83-bafb-ea6cc3265f8b-0002b3a0, !- Name
  ,                                       !- Multiplier
  3.8,                                    !- Ceiling Height {m}
  158.791309559068,                       !- Volume {m3}
  ,                                       !- Floor Area {m2}
  ,                                       !- Zone Inside Convection Algorithm
  ,                                       !- Zone Outside Convection Algorithm
  ,                                       !- Zone Conditioning Equipment List Name
  {34c27d20-b7cb-435a-9ed2-d671d3abc731}, !- Zone Air Inlet Port List
  {4f795435-a1f2-47e8-87d9-e87500d165ad}, !- Zone Air Exhaust Port List
  {54f660b7-d958-4400-b35d-5664cf734adb}, !- Zone Air Node Name
  {0b8069d1-1c32-47a6-aedb-0724f76b273b}, !- Zone Return Air Port List
  ,                                       !- Primary Daylighting Control Name
  ,                                       !- Fraction of Zone Controlled by Primary Daylighting Control
  ,                                       !- Secondary Daylighting Control Name
  ,                                       !- Fraction of Zone Controlled by Secondary Daylighting Control
  ,                                       !- Illuminance Map Name
  ,                                       !- Group Rendering Name
  ,                                       !- Thermostat Name
  No;                                     !- Use Ideal Air Loads

OS:Node,
  {7b78512a-00be-4aa6-a1e8-648b647a50dd}, !- Handle
  Node 1,                                 !- Name
  {54f660b7-d958-4400-b35d-5664cf734adb}, !- Inlet Port
  ;                                       !- Outlet Port

OS:Connection,
  {54f660b7-d958-4400-b35d-5664cf734adb}, !- Handle
  {b9a0e68c-0d51-4c34-9a9d-1e5df2ad163e}, !- Source Object
  11,                                     !- Outlet Port
  {7b78512a-00be-4aa6-a1e8-648b647a50dd}, !- Target Object
  2;                                      !- Inlet Port

OS:PortList,
  {34c27d20-b7cb-435a-9ed2-d671d3abc731}, !- Handle
  {b9a0e68c-0d51-4c34-9a9d-1e5df2ad163e}; !- HVAC Component

OS:PortList,
  {4f795435-a1f2-47e8-87d9-e87500d165ad}, !- Handle
  {b9a0e68c-0d51-4c34-9a9d-1e5df2ad163e}; !- HVAC Component

OS:PortList,
  {0b8069d1-1c32-47a6-aedb-0724f76b273b}, !- Handle
  {b9a0e68c-0d51-4c34-9a9d-1e5df2ad163e}; !- HVAC Component

OS:Sizing:Zone,
  {8284bc3f-180b-4228-9744-c4c6aac37999}, !- Handle
  {b9a0e68c-0d51-4c34-9a9d-1e5df2ad163e}, !- Zone or ZoneList Name
  SupplyAirTemperature,                   !- Zone Cooling Design Supply Air Temperature Input Method
  14,                                     !- Zone Cooling Design Supply Air Temperature {C}
  11.11,                                  !- Zone Cooling Design Supply Air Temperature Difference {deltaC}
  SupplyAirTemperature,                   !- Zone Heating Design Supply Air Temperature Input Method
  40,                                     !- Zone Heating Design Supply Air Temperature {C}
  11.11,                                  !- Zone Heating Design Supply Air Temperature Difference {deltaC}
  0.0085,                                 !- Zone Cooling Design Supply Air Humidity Ratio {kg-H2O/kg-air}
  0.008,                                  !- Zone Heating Design Supply Air Humidity Ratio {kg-H2O/kg-air}
  ,                                       !- Zone Heating Sizing Factor
  ,                                       !- Zone Cooling Sizing Factor
  DesignDay,                              !- Cooling Design Air Flow Method
  ,                                       !- Cooling Design Air Flow Rate {m3/s}
  ,                                       !- Cooling Minimum Air Flow per Zone Floor Area {m3/s-m2}
  ,                                       !- Cooling Minimum Air Flow {m3/s}
  ,                                       !- Cooling Minimum Air Flow Fraction
  DesignDay,                              !- Heating Design Air Flow Method
  ,                                       !- Heating Design Air Flow Rate {m3/s}
  ,                                       !- Heating Maximum Air Flow per Zone Floor Area {m3/s-m2}
  ,                                       !- Heating Maximum Air Flow {m3/s}
  ,                                       !- Heating Maximum Air Flow Fraction
  No,                                     !- Account for Dedicated Outdoor Air System
  NeutralSupplyAir,                       !- Dedicated Outdoor Air System Control Strategy
  autosize,                               !- Dedicated Outdoor Air Low Setpoint Temperature for Design {C}
  autosize,                               !- Dedicated Outdoor Air High Setpoint Temperature for Design {C}
  Sensible Load Only No Latent Load,      !- Zone Load Sizing Method
  HumidityRatioDifference,                !- Zone Latent Cooling Design Supply Air Humidity Ratio Input Method
  ,                                       !- Zone Dehumidification Design Supply Air Humidity Ratio {kgWater/kgDryAir}
  0.005,                                  !- Zone Cooling Design Supply Air Humidity Ratio Difference {kgWater/kgDryAir}
  HumidityRatioDifference,                !- Zone Latent Heating Design Supply Air Humidity Ratio Input Method
  ,                                       !- Zone Humidification Design Supply Air Humidity Ratio {kgWater/kgDryAir}
  0.005,                                  !- Zone Humidification Design Supply Air Humidity Ratio Difference {kgWater/kgDryAir}
  ,                                       !- Zone Humidistat Dehumidification Set Point Schedule Name
  ,                                       !- Zone Humidistat Humidification Set Point Schedule Name
  ,                                       !- Design Zone Air Distribution Effectiveness in Cooling Mode
  ,                                       !- Design Zone Air Distribution Effectiveness in Heating Mode
  ,                                       !- Design Zone Secondary Recirculation Fraction {dimensionless}
  ,                                       !- Design Minimum Zone Ventilation Efficiency {dimensionless}
  Coincident;                             !- Sizing Option

OS:ZoneHVAC:EquipmentList,
  {b688a297-7d1c-4c24-8add-633058fec2b5}, !- Handle
  Zone HVAC Equipment List 1,             !- Name
  {b9a0e68c-0d51-4c34-9a9d-1e5df2ad163e}; !- Thermal Zone

OS:Surface,
  {6b451594-24d4-47cc-ac79-ae263b546af3}, !- Handle
  Room_50383581-0df4-4a83-bafb-ea6cc3265f8b-0002b3a0..Face0, !- Name
  Floor,                                  !- Surface Type
  ,                                       !- Construction Name
  {8f0eea63-6022-452f-87fb-49bff31905e3}, !- Space Name
  Ground,                                 !- Outside Boundary Condition
  ,                                       !- Outside Boundary Condition Object
  NoSun,                                  !- Sun Exposure
  NoWind,                                 !- Wind Exposure
  ,                                       !- View Factor to Ground
  ,                                       !- Number of Vertices
  -1.51654943934292, 22.3317907561918, 0, !- X,Y,Z Vertex 1 {m}
  -1.51654943934295, 6.06743861993783, 0, !- X,Y,Z Vertex 2 {m}
  -4.08579943934294, 6.06743861993784, 0, !- X,Y,Z Vertex 3 {m}
  -4.08579943934292, 22.3317907561918, 0; !- X,Y,Z Vertex 4 {m}

OS:Surface,
  {9170d812-2d5f-44d7-a571-120a98285a1c}, !- Handle
  Room_50383581-0df4-4a83-bafb-ea6cc3265f8b-0002b3a0..Face1, !- Name
  Wall,                                   !- Surface Type
  ,                                       !- Construction Name
  {8f0eea63-6022-452f-87fb-49bff31905e3}, !- Space Name
  Outdoors,                               !- Outside Boundary Condition
  ,                                       !- Outside Boundary Condition Object
  SunExposed,                             !- Sun Exposure
  WindExposed,                            !- Wind Exposure
  ,                                       !- View Factor to Ground
  ,                                       !- Number of Vertices
  -4.08579943934292, 22.3317907561918, 3.8, !- X,Y,Z Vertex 1 {m}
  -4.08579943934292, 22.3317907561918, 0, !- X,Y,Z Vertex 2 {m}
  -4.08579943934294, 6.06743861993784, 0, !- X,Y,Z Vertex 3 {m}
  -4.08579943934294, 6.06743861993784, 3.8; !- X,Y,Z Vertex 4 {m}

OS:SubSurface,
  {65e6fd01-ed0f-435c-a495-11eab2864275}, !- Handle
  Room_50383581-0df4-4a83-bafb-ea6cc3265f8b-0002b3a0..Face1_Glz1, !- Name
  FixedWindow,                            !- Sub Surface Type
  ,                                       !- Construction Name
  {9170d812-2d5f-44d7-a571-120a98285a1c}, !- Surface Name
  ,                                       !- Outside Boundary Condition Object
  ,                                       !- View Factor to Ground
  ,                                       !- Frame and Divider Name
  ,                                       !- Multiplier
  ,                                       !- Number of Vertices
  -4.08579943934294, 8.19393861993784, 1.24, !- X,Y,Z Vertex 1 {m}
  -4.08579943934294, 8.19393861993784, 0.0499999999999983, !- X,Y,Z Vertex 2 {m}
  -4.08579943934294, 6.26893861993784, 0.049999999999998, !- X,Y,Z Vertex 3 {m}
  -4.08579943934294, 6.26893861993784, 1.24; !- X,Y,Z Vertex 4 {m}

OS:SubSurface,
  {bdbdf9bc-697d-40f4-9744-fda824f3b943}, !- Handle
  Room_50383581-0df4-4a83-bafb-ea6cc3265f8b-0002b3a0..Face1_Glz2, !- Name
  FixedWindow,                            !- Sub Surface Type
  ,                                       !- Construction Name
  {9170d812-2d5f-44d7-a571-120a98285a1c}, !- Surface Name
  ,                                       !- Outside Boundary Condition Object
  ,                                       !- View Factor to Ground
  ,                                       !- Frame and Divider Name
  ,                                       !- Multiplier
  ,                                       !- Number of Vertices
  -4.08579943934294, 10.1939386199378, 1.24, !- X,Y,Z Vertex 1 {m}
  -4.08579943934294, 10.1939386199378, 0.0499999999999985, !- X,Y,Z Vertex 2 {m}
  -4.08579943934294, 8.24393861993784, 0.0499999999999983, !- X,Y,Z Vertex 3 {m}
  -4.08579943934294, 8.24393861993784, 1.24; !- X,Y,Z Vertex 4 {m}

OS:SubSurface,
  {ea7ba4b8-4e6a-46f1-97eb-bef264769f39}, !- Handle
  Room_50383581-0df4-4a83-bafb-ea6cc3265f8b-0002b3a0..Face1_Glz3, !- Name
  FixedWindow,                            !- Sub Surface Type
  ,                                       !- Construction Name
  {9170d812-2d5f-44d7-a571-120a98285a1c}, !- Surface Name
  ,                                       !- Outside Boundary Condition Object
  ,                                       !- View Factor to Ground
  ,                                       !- Frame and Divider Name
  ,                                       !- Multiplier
  ,                                       !- Number of Vertices
  -4.08579943934294, 12.1939386199378, 1.24, !- X,Y,Z Vertex 1 {m}
  -4.08579943934294, 12.1939386199378, 0.0499999999999988, !- X,Y,Z Vertex 2 {m}
  -4.08579943934294, 10.2439386199378, 0.0499999999999985, !- X,Y,Z Vertex 3 {m}
  -4.08579943934294, 10.2439386199378, 1.24; !- X,Y,Z Vertex 4 {m}

OS:SubSurface,
  {292c31fb-7c77-4c7d-8965-0f2bc5080373}, !- Handle
  Room_50383581-0df4-4a83-bafb-ea6cc3265f8b-0002b3a0..Face1_Glz4, !- Name
  FixedWindow,                            !- Sub Surface Type
  ,                                       !- Construction Name
  {9170d812-2d5f-44d7-a571-120a98285a1c}, !- Surface Name
  ,                                       !- Outside Boundary Condition Object
  ,                                       !- View Factor to Ground
  ,                                       !- Frame and Divider Name
  ,                                       !- Multiplier
  ,                                       !- Number of Vertices
  -4.08579943934293, 14.1939386199378, 1.24, !- X,Y,Z Vertex 1 {m}
  -4.08579943934293, 14.1939386199378, 0.049999999999999, !- X,Y,Z Vertex 2 {m}
  -4.08579943934294, 12.2439386199378, 0.0499999999999988, !- X,Y,Z Vertex 3 {m}
  -4.08579943934294, 12.2439386199378, 1.24; !- X,Y,Z Vertex 4 {m}

OS:SubSurface,
  {76de1c69-e0ae-435c-9c49-fe15907b4ddc}, !- Handle
  Room_50383581-0df4-4a83-bafb-ea6cc3265f8b-0002b3a0..Face1_Glz5, !- Name
  FixedWindow,                            !- Sub Surface Type
  ,                                       !- Construction Name
  {9170d812-2d5f-44d7-a571-120a98285a1c}, !- Surface Name
  ,                                       !- Outside Boundary Condition Object
  ,                                       !- View Factor to Ground
  ,                                       !- Frame and Divider Name
  ,                                       !- Multiplier
  ,                                       !- Number of Vertices
  -4.08579943934293, 14.3139386199378, 2.134, !- X,Y,Z Vertex 1 {m}
  -4.08579943934293, 14.3139386199378, 0.000914399999999018, !- X,Y,Z Vertex 2 {m}
  -4.08579943934293, 14.2439386199378, 0.00091439999999901, !- X,Y,Z Vertex 3 {m}
  -4.08579943934293, 14.2439386199378, 2.134; !- X,Y,Z Vertex 4 {m}

OS:SubSurface,
  {81314086-b980-47d2-9f07-4926e9585d1c}, !- Handle
  Room_50383581-0df4-4a83-bafb-ea6cc3265f8b-0002b3a0..Face1_Glz6, !- Name
  FixedWindow,                            !- Sub Surface Type
  ,                                       !- Construction Name
  {9170d812-2d5f-44d7-a571-120a98285a1c}, !- Surface Name
  ,                                       !- Outside Boundary Condition Object
  ,                                       !- View Factor to Ground
  ,                                       !- Frame and Divider Name
  ,                                       !- Multiplier
  ,                                       !- Number of Vertices
  -4.08579943934292, 20.1939386199378, 1.24, !- X,Y,Z Vertex 1 {m}
  -4.08579943934292, 20.1939386199378, 0.0499999999999997, !- X,Y,Z Vertex 2 {m}
  -4.08579943934293, 18.2439386199378, 0.0499999999999995, !- X,Y,Z Vertex 3 {m}
  -4.08579943934293, 18.2439386199378, 1.24; !- X,Y,Z Vertex 4 {m}

OS:SubSurface,
  {73316ac4-2088-4c35-9704-0b930b9e5cca}, !- Handle
  Room_50383581-0df4-4a83-bafb-ea6cc3265f8b-0002b3a0..Face1_Glz7, !- Name
  FixedWindow,                            !- Sub Surface Type
  ,                                       !- Construction Name
  {9170d812-2d5f-44d7-a571-120a98285a1c}, !- Surface Name
  ,                                       !- Outside Boundary Condition Object
  ,                                       !- View Factor to Ground
  ,                                       !- Frame and Divider Name
  ,                                       !- Multiplier
  ,                                       !- Number of Vertices
  -4.08579943934292, 22.1302907561918, 1.24, !- X,Y,Z Vertex 1 {m}
  -4.08579943934292, 22.1302907561918, 0.05, !- X,Y,Z Vertex 2 {m}
  -4.08579943934292, 20.2439386199378, 0.0499999999999998, !- X,Y,Z Vertex 3 {m}
  -4.08579943934292, 20.2439386199378, 1.24; !- X,Y,Z Vertex 4 {m}

OS:SubSurface,
  {98c46668-1d24-4a07-af56-b6b98d4b0a60}, !- Handle
  Room_50383581-0df4-4a83-bafb-ea6cc3265f8b-0002b3a0..Face1_Glz8, !- Name
  FixedWindow,                            !- Sub Surface Type
  ,                                       !- Construction Name
  {9170d812-2d5f-44d7-a571-120a98285a1c}, !- Surface Name
  ,                                       !- Outside Boundary Condition Object
  ,                                       !- View Factor to Ground
  ,                                       !- Frame and Divider Name
  ,                                       !- Multiplier
  ,                                       !- Number of Vertices
  -4.08579943934294, 8.19393861993784, 2.505, !- X,Y,Z Vertex 1 {m}
  -4.08579943934294, 8.19393861993784, 1.29, !- X,Y,Z Vertex 2 {m}
  -4.08579943934294, 6.26893861993784, 1.29, !- X,Y,Z Vertex 3 {m}
  -4.08579943934294, 6.26893861993784, 2.505; !- X,Y,Z Vertex 4 {m}

OS:SubSurface,
  {deedf021-b1ee-4bd8-aa48-d651dfb4c1ce}, !- Handle
  Room_50383581-0df4-4a83-bafb-ea6cc3265f8b-0002b3a0..Face1_Glz9, !- Name
  FixedWindow,                            !- Sub Surface Type
  ,                                       !- Construction Name
  {9170d812-2d5f-44d7-a571-120a98285a1c}, !- Surface Name
  ,                                       !- Outside Boundary Condition Object
  ,                                       !- View Factor to Ground
  ,                                       !- Frame and Divider Name
  ,                                       !- Multiplier
  ,                                       !- Number of Vertices
  -4.08579943934294, 10.1939386199378, 2.505, !- X,Y,Z Vertex 1 {m}
  -4.08579943934294, 10.1939386199378, 1.29, !- X,Y,Z Vertex 2 {m}
  -4.08579943934294, 8.24393861993783, 1.29, !- X,Y,Z Vertex 3 {m}
  -4.08579943934294, 8.24393861993783, 2.505; !- X,Y,Z Vertex 4 {m}

OS:SubSurface,
  {b6c1c69a-7b16-42e0-b272-7d2e95f87fb1}, !- Handle
  Room_50383581-0df4-4a83-bafb-ea6cc3265f8b-0002b3a0..Face1_Glz10, !- Name
  FixedWindow,                            !- Sub Surface Type
  ,                                       !- Construction Name
  {9170d812-2d5f-44d7-a571-120a98285a1c}, !- Surface Name
  ,                                       !- Outside Boundary Condition Object
  ,                                       !- View Factor to Ground
  ,                                       !- Frame and Divider Name
  ,                                       !- Multiplier
  ,                                       !- Number of Vertices
  -4.08579943934294, 12.1939386199378, 2.505, !- X,Y,Z Vertex 1 {m}
  -4.08579943934294, 12.1939386199378, 1.29, !- X,Y,Z Vertex 2 {m}
  -4.08579943934294, 10.2439386199378, 1.29, !- X,Y,Z Vertex 3 {m}
  -4.08579943934294, 10.2439386199378, 2.505; !- X,Y,Z Vertex 4 {m}

OS:SubSurface,
  {9bb498b2-7b21-448a-b5b0-ece4ecfb7f14}, !- Handle
  Room_50383581-0df4-4a83-bafb-ea6cc3265f8b-0002b3a0..Face1_Glz11, !- Name
  FixedWindow,                            !- Sub Surface Type
  ,                                       !- Construction Name
  {9170d812-2d5f-44d7-a571-120a98285a1c}, !- Surface Name
  ,                                       !- Outside Boundary Condition Object
  ,                                       !- View Factor to Ground
  ,                                       !- Frame and Divider Name
  ,                                       !- Multiplier
  ,                                       !- Number of Vertices
  -4.08579943934293, 14.1939386199378, 2.505, !- X,Y,Z Vertex 1 {m}
  -4.08579943934293, 14.1939386199378, 1.29, !- X,Y,Z Vertex 2 {m}
  -4.08579943934294, 12.2439386199378, 1.29, !- X,Y,Z Vertex 3 {m}
  -4.08579943934294, 12.2439386199378, 2.505; !- X,Y,Z Vertex 4 {m}

OS:SubSurface,
  {33a5cece-23c5-4613-a291-ccda4ac379bb}, !- Handle
  Room_50383581-0df4-4a83-bafb-ea6cc3265f8b-0002b3a0..Face1_Glz12, !- Name
  FixedWindow,                            !- Sub Surface Type
  ,                                       !- Construction Name
  {9170d812-2d5f-44d7-a571-120a98285a1c}, !- Surface Name
  ,                                       !- Outside Boundary Condition Object
  ,                                       !- View Factor to Ground
  ,                                       !- Frame and Divider Name
  ,                                       !- Multiplier
  ,                                       !- Number of Vertices
  -4.08579943934292, 20.1939386199378, 2.505, !- X,Y,Z Vertex 1 {m}
  -4.08579943934292, 20.1939386199378, 1.29, !- X,Y,Z Vertex 2 {m}
  -4.08579943934293, 18.2439386199378, 1.29, !- X,Y,Z Vertex 3 {m}
  -4.08579943934293, 18.2439386199378, 2.505; !- X,Y,Z Vertex 4 {m}

OS:SubSurface,
  {f71735f8-445a-4610-88eb-f7b2ed4cbe9e}, !- Handle
  Room_50383581-0df4-4a83-bafb-ea6cc3265f8b-0002b3a0..Face1_Glz13, !- Name
  FixedWindow,                            !- Sub Surface Type
  ,                                       !- Construction Name
  {9170d812-2d5f-44d7-a571-120a98285a1c}, !- Surface Name
  ,                                       !- Outside Boundary Condition Object
  ,                                       !- View Factor to Ground
  ,                                       !- Frame and Divider Name
  ,                                       !- Multiplier
  ,                                       !- Number of Vertices
  -4.08579943934292, 22.1302907561918, 2.505, !- X,Y,Z Vertex 1 {m}
  -4.08579943934292, 22.1302907561918, 1.29, !- X,Y,Z Vertex 2 {m}
  -4.08579943934292, 20.2439386199378, 1.29, !- X,Y,Z Vertex 3 {m}
  -4.08579943934292, 20.2439386199378, 2.505; !- X,Y,Z Vertex 4 {m}

OS:SubSurface,
  {1e7ea3f9-c1b9-4d60-b468-7e69862f5991}, !- Handle
  Room_50383581-0df4-4a83-bafb-ea6cc3265f8b-0002b3a0..Face1_Glz14, !- Name
  FixedWindow,                            !- Sub Surface Type
  ,                                       !- Construction Name
  {9170d812-2d5f-44d7-a571-120a98285a1c}, !- Surface Name
  ,                                       !- Outside Boundary Condition Object
  ,                                       !- View Factor to Ground
  ,                                       !- Frame and Divider Name
  ,                                       !- Multiplier
  ,                                       !- Number of Vertices
  -4.08579943934294, 8.19393861993784, 3.48500000000151, !- X,Y,Z Vertex 1 {m}
  -4.08579943934294, 8.19393861993784, 2.555, !- X,Y,Z Vertex 2 {m}
  -4.08579943934294, 6.26893861993784, 2.555, !- X,Y,Z Vertex 3 {m}
  -4.08579943934294, 6.26893861993784, 3.48500000000151; !- X,Y,Z Vertex 4 {m}

OS:SubSurface,
  {11ec1b31-3f49-4066-abad-8534c0647ee0}, !- Handle
  Room_50383581-0df4-4a83-bafb-ea6cc3265f8b-0002b3a0..Face1_Glz15, !- Name
  FixedWindow,                            !- Sub Surface Type
  ,                                       !- Construction Name
  {9170d812-2d5f-44d7-a571-120a98285a1c}, !- Surface Name
  ,                                       !- Outside Boundary Condition Object
  ,                                       !- View Factor to Ground
  ,                                       !- Frame and Divider Name
  ,                                       !- Multiplier
  ,                                       !- Number of Vertices
  -4.08579943934294, 10.1939386199378, 3.48500000000151, !- X,Y,Z Vertex 1 {m}
  -4.08579943934294, 10.1939386199378, 2.555, !- X,Y,Z Vertex 2 {m}
  -4.08579943934294, 8.24393861993784, 2.555, !- X,Y,Z Vertex 3 {m}
  -4.08579943934294, 8.24393861993784, 3.48500000000151; !- X,Y,Z Vertex 4 {m}

OS:SubSurface,
  {d07267f5-01a9-4b6c-9318-100a894f7ef7}, !- Handle
  Room_50383581-0df4-4a83-bafb-ea6cc3265f8b-0002b3a0..Face1_Glz16, !- Name
  FixedWindow,                            !- Sub Surface Type
  ,                                       !- Construction Name
  {9170d812-2d5f-44d7-a571-120a98285a1c}, !- Surface Name
  ,                                       !- Outside Boundary Condition Object
  ,                                       !- View Factor to Ground
  ,                                       !- Frame and Divider Name
  ,                                       !- Multiplier
  ,                                       !- Number of Vertices
  -4.08579943934294, 12.1939386199378, 3.48500000000151, !- X,Y,Z Vertex 1 {m}
  -4.08579943934294, 12.1939386199378, 2.555, !- X,Y,Z Vertex 2 {m}
  -4.08579943934294, 10.2439386199378, 2.555, !- X,Y,Z Vertex 3 {m}
  -4.08579943934294, 10.2439386199378, 3.48500000000151; !- X,Y,Z Vertex 4 {m}

OS:SubSurface,
  {2e132b8c-5b14-4954-a163-0ee5a9615dd8}, !- Handle
  Room_50383581-0df4-4a83-bafb-ea6cc3265f8b-0002b3a0..Face1_Glz17, !- Name
  FixedWindow,                            !- Sub Surface Type
  ,                                       !- Construction Name
  {9170d812-2d5f-44d7-a571-120a98285a1c}, !- Surface Name
  ,                                       !- Outside Boundary Condition Object
  ,                                       !- View Factor to Ground
  ,                                       !- Frame and Divider Name
  ,                                       !- Multiplier
  ,                                       !- Number of Vertices
  -4.08579943934293, 14.1939386199378, 3.48500000000151, !- X,Y,Z Vertex 1 {m}
  -4.08579943934293, 14.1939386199378, 2.555, !- X,Y,Z Vertex 2 {m}
  -4.08579943934294, 12.2439386199378, 2.555, !- X,Y,Z Vertex 3 {m}
  -4.08579943934294, 12.2439386199378, 3.48500000000151; !- X,Y,Z Vertex 4 {m}

OS:SubSurface,
  {56ac4c42-2218-470d-8733-da210af066cc}, !- Handle
  Room_50383581-0df4-4a83-bafb-ea6cc3265f8b-0002b3a0..Face1_Glz18, !- Name
  FixedWindow,                            !- Sub Surface Type
  ,                                       !- Construction Name
  {9170d812-2d5f-44d7-a571-120a98285a1c}, !- Surface Name
  ,                                       !- Outside Boundary Condition Object
  ,                                       !- View Factor to Ground
  ,                                       !- Frame and Divider Name
  ,                                       !- Multiplier
  ,                                       !- Number of Vertices
  -4.08579943934293, 16.1939386199378, 3.48500000000151, !- X,Y,Z Vertex 1 {m}
  -4.08579943934293, 16.1939386199378, 2.555, !- X,Y,Z Vertex 2 {m}
  -4.08579943934293, 14.2439386199378, 2.555, !- X,Y,Z Vertex 3 {m}
  -4.08579943934293, 14.2439386199378, 3.48500000000151; !- X,Y,Z Vertex 4 {m}

OS:SubSurface,
  {39363344-6196-4a84-9127-1327fd836277}, !- Handle
  Room_50383581-0df4-4a83-bafb-ea6cc3265f8b-0002b3a0..Face1_Glz19, !- Name
  FixedWindow,                            !- Sub Surface Type
  ,                                       !- Construction Name
  {9170d812-2d5f-44d7-a571-120a98285a1c}, !- Surface Name
  ,                                       !- Outside Boundary Condition Object
  ,                                       !- View Factor to Ground
  ,                                       !- Frame and Divider Name
  ,                                       !- Multiplier
  ,                                       !- Number of Vertices
  -4.08579943934293, 18.1939386199378, 3.48500000000151, !- X,Y,Z Vertex 1 {m}
  -4.08579943934293, 18.1939386199378, 2.555, !- X,Y,Z Vertex 2 {m}
  -4.08579943934293, 16.2439386199378, 2.555, !- X,Y,Z Vertex 3 {m}
  -4.08579943934293, 16.2439386199378, 3.48500000000151; !- X,Y,Z Vertex 4 {m}

OS:SubSurface,
  {9ff1fa94-5cc2-45ae-9f31-5769190245bd}, !- Handle
  Room_50383581-0df4-4a83-bafb-ea6cc3265f8b-0002b3a0..Face1_Glz20, !- Name
  FixedWindow,                            !- Sub Surface Type
  ,                                       !- Construction Name
  {9170d812-2d5f-44d7-a571-120a98285a1c}, !- Surface Name
  ,                                       !- Outside Boundary Condition Object
  ,                                       !- View Factor to Ground
  ,                                       !- Frame and Divider Name
  ,                                       !- Multiplier
  ,                                       !- Number of Vertices
  -4.08579943934292, 20.1939386199378, 3.48500000000151, !- X,Y,Z Vertex 1 {m}
  -4.08579943934292, 20.1939386199378, 2.555, !- X,Y,Z Vertex 2 {m}
  -4.08579943934293, 18.2439386199378, 2.555, !- X,Y,Z Vertex 3 {m}
  -4.08579943934293, 18.2439386199378, 3.48500000000151; !- X,Y,Z Vertex 4 {m}

OS:SubSurface,
  {fa7b0ed9-9c39-411f-a7cd-75828a3e7328}, !- Handle
  Room_50383581-0df4-4a83-bafb-ea6cc3265f8b-0002b3a0..Face1_Glz21, !- Name
  FixedWindow,                            !- Sub Surface Type
  ,                                       !- Construction Name
  {9170d812-2d5f-44d7-a571-120a98285a1c}, !- Surface Name
  ,                                       !- Outside Boundary Condition Object
  ,                                       !- View Factor to Ground
  ,                                       !- Frame and Divider Name
  ,                                       !- Multiplier
  ,                                       !- Number of Vertices
  -4.08579943934292, 22.1302907561918, 3.48500000000151, !- X,Y,Z Vertex 1 {m}
  -4.08579943934292, 22.1302907561918, 2.555, !- X,Y,Z Vertex 2 {m}
  -4.08579943934292, 20.2439386199378, 2.555, !- X,Y,Z Vertex 3 {m}
  -4.08579943934292, 20.2439386199378, 3.48500000000151; !- X,Y,Z Vertex 4 {m}

OS:SubSurface,
  {86a94a37-552d-4ed7-8aa6-d65bcc3dcd7b}, !- Handle
  Room_50383581-0df4-4a83-bafb-ea6cc3265f8b-0002b3a0..Face1_Glz22, !- Name
  FixedWindow,                            !- Sub Surface Type
  ,                                       !- Construction Name
  {9170d812-2d5f-44d7-a571-120a98285a1c}, !- Surface Name
  ,                                       !- Outside Boundary Condition Object