
OS:Version,
  {01eab226-fd64-40e3-80b1-fc07f67035d3}, !- Handle
  3.8.0;                                  !- Version Identifier

OS:Building,
  {48d8465a-54b3-443d-b5f6-65dd798cfb48}, !- Handle
  LabBuilding,                            !- Name
  ,                                       !- Building Sector Type
  ,                                       !- North Axis {deg}
  ,                                       !- Nominal Floor to Floor Height {m}
  ,                                       !- Space Type Name
  {dbfca7d5-499c-4177-9781-45d76e670eef}, !- Default Construction Set Name
  ;                                       !- Default Schedule Set Name

OS:YearDescription,
  {c29a8e68-de7b-4f61-9004-571d6e67f728}, !- Handle
  ,                                       !- Calendar Year
  Sunday;                                 !- Day of Week for Start Day

OS:ScheduleTypeLimits,
  {c617a417-df39-4257-8da1-08b159e4d74a}, !- Handle
  Fractional,                             !- Name
  0,                                      !- Lower Limit Value
  1,                                      !- Upper Limit Value
  Continuous,                             !- Numeric Type
  Dimensionless;                          !- Unit Type

OS:ScheduleTypeLimits,
  {65b64539-91cb-4e23-ab1c-46666b67baec}, !- Handle
  Temperature,                            !- Name
  -273.15,                                !- Lower Limit Value
  ,                                       !- Upper Limit Value
  Continuous,                             !- Numeric Type
  Temperature;                            !- Unit Type

OS:ScheduleTypeLimits,
  {f3e24286-8fb6-496a-b8b8-95b1137103af}, !- Handle
  Activity Level,                         !- Name
  0,                                      !- Lower Limit Value
  ,                                       !- Upper Limit Value
  Continuous,                             !- Numeric Type
  ActivityLevel;                          !- Unit Type

OS:Schedule:Ruleset,
  {b3da290b-b56d-4aa9-b282-11786402beed}, !- Handle
  Lab_LIGHT_SCH,                          !- Name
  {c617a417-df39-4257-8da1-08b159e4d74a}, !- Schedule Type Limits Name
  {be6c26fc-dbbe-4c54-a32c-c00e54994626}, !- Default Day Schedule Name
  {bf849856-852c-4e59-80de-985bad3ae543}, !- Summer Design Day Schedule Name
  {d56a4b7a-174f-45fa-a661-de0c9122ed77}; !- Winter Design Day Schedule Name

OS:Schedule:Day,
  {be6c26fc-dbbe-4c54-a32c-c00e54994626}, !- Handle
  Lab_LIGHT_SCH_Default,                  !- Name
  {c617a417-df39-4257-8da1-08b159e4d74a}, !- Schedule Type Limits Name
  ,                                       !- Interpolate to Timestep
  7,                                      !- Hour 1
  0,                                      !- Minute 1
  0.1,                                    !- Value Until Time 1
  11,                                     !- Hour 2
  0,                                      !- Minute 2
  0.4,                                    !- Value Until Time 2
  16,                                     !- Hour 3
  0,                                      !- Minute 3
  0.2,                                    !- Value Until Time 3
  24,                                     !- Hour 4
  0,                                      !- Minute 4
  0.1;                                    !- Value Until Time 4

OS:Schedule:Day,
  {4fbd7cfe-7229-41eb-9a65-bbd5dbee7c34}, !- Handle
  Lab_LIGHT_SCH_SmrDsn,                   !- Name
  {c617a417-df39-4257-8da1-08b159e4d74a}, !- Schedule Type Limits Name
  ,                                       !- Interpolate to Timestep
  24,                                     !- Hour 1
  0,                                      !- Minute 1
  1;                                      !- Value Until Time 1

OS:Schedule:Day,
  {fbff2ad2-bc92-40df-a597-a7d669067d20}, !- Handle
  Lab_LIGHT_SCH_WntrDsn,                  !- Name
  {c617a417-df39-4257-8da1-08b159e4d74a}, !- Schedule Type Limits Name
  ,                                       !- Interpolate to Timestep
  24,                                     !- Hour 1
  0,                                      !- Minute 1
  0;                                      !- Value Until Time 1

OS:Schedule:Day,
  {abed8f1f-a1ff-489b-9361-fbba8028678d}, !- Handle
  Lab_LIGHT_SCH_Wkdy,                     !- Name
  {c617a417-df39-4257-8da1-08b159e4d74a}, !- Schedule Type Limits Name
  ,                                       !- Interpolate to Timestep
  5,                                      !- Hour 1
  0,                                      !- Minute 1
  0.2,                                    !- Value Until Time 1
  6,                                      !- Hour 2
  0,                                      !- Minute 2
  0.3,                                    !- Value Until Time 2
  7,                                      !- Hour 3
  0,                                      !- Minute 3
  0.5,                                    !- Value Until Time 3
  11,                                     !- Hour 4
  0,                                      !- Minute 4
  0.9,                                    !- Value Until Time 4
  12,                                     !- Hour 5
  0,                                      !- Minute 5
  0.8,                                    !- Value Until Time 5
  17,                                     !- Hour 6
  0,                                      !- Minute 6
  0.9,                                    !- Value Until Time 6
  19,                                     !- Hour 7
  0,                                      !- Minute 7
  0.5,                                    !- Value Until Time 7
  21,                                     !- Hour 8
  0,                                      !- Minute 8
  0.3,                                    !- Value Until Time 8
  24,                                     !- Hour 9
  0,                                      !- Minute 9
  0.2;                                    !- Value Until Time 9

OS:Schedule:Day,
  {bf849856-852c-4e59-80de-985bad3ae543}, !- Handle
  Lab_LIGHT_SCH_SmrDsn 1,                 !- Name
  {c617a417-df39-4257-8da1-08b159e4d74a}, !- Schedule Type Limits Name
  ,                                       !- Interpolate to Timestep
  24,                                     !- Hour 1
  0,                                      !- Minute 1
  1;                                      !- Value Until Time 1

OS:Schedule:Day,
  {d56a4b7a-174f-45fa-a661-de0c9122ed77}, !- Handle
  Lab_LIGHT_SCH_WntrDsn 1,                !- Name
  {c617a417-df39-4257-8da1-08b159e4d74a}, !- Schedule Type Limits Name
  ,                                       !- Interpolate to Timestep
  24,                                     !- Hour 1
  0,                                      !- Minute 1
  0;                                      !- Value Until Time 1

OS:Schedule:Rule,
  {181dda38-ba8d-4970-a074-72982aea9668}, !- Handle
  Schedule Rule 1,                        !- Name
  {b3da290b-b56d-4aa9-b282-11786402beed}, !- Schedule Ruleset Name
  0,                                      !- Rule Order
  {ed87e460-f117-454d-b7ea-cb8f1396a883}, !- Day Schedule Name
  No,                                     !- Apply Sunday
  Yes,                                    !- Apply Monday
  Yes,                                    !- Apply Tuesday
  Yes,                                    !- Apply Wednesday
  Yes,                                    !- Apply Thursday
  Yes,                                    !- Apply Friday
  No,                                     !- Apply Saturday
  DateRange,                              !- Date Specification Type
  1,                                      !- Start Month
  1,                                      !- Start Day
  12,                                     !- End Month
  31;                                     !- End Day

OS:Schedule:Day,
  {ed87e460-f117-454d-b7ea-cb8f1396a883}, !- Handle
  Schedule Day 1,                         !- Name
  {c617a417-df39-4257-8da1-08b159e4d74a}, !- Schedule Type Limits Name
  ,                                       !- Interpolate to Timestep
  5,                                      !- Hour 1
  0,                                      !- Minute 1
  0.2,                                    !- Value Until Time 1
  6,                                      !- Hour 2
  0,                                      !- Minute 2
  0.3,                                    !- Value Until Time 2
  7,                                      !- Hour 3
  0,                                      !- Minute 3
  0.5,                                    !- Value Until Time 3
  11,                                     !- Hour 4
  0,                                      !- Minute 4
  0.9,                                    !- Value Until Time 4
  12,                                     !- Hour 5
  0,                                      !- Minute 5
  0.8,                                    !- Value Until Time 5
  17,                                     !- Hour 6
  0,                                      !- Minute 6
  0.9,                                    !- Value Until Time 6
  19,                                     !- Hour 7
  0,                                      !- Minute 7
  0.5,                                    !- Value Until Time 7
  21,                                     !- Hour 8
  0,                                      !- Minute 8
  0.3,                                    !- Value Until Time 8
  24,                                     !- Hour 9
  0,                                      !- Minute 9
  0.2;                                    !- Value Until Time 9

OS:Schedule:Ruleset,
  {7e1d8ac0-95bc-4cf4-abe3-253338694552}, !- Handle
  OfficeMedium BLDG_EQUIP_SCH_2013,       !- Name
  {c617a417-df39-4257-8da1-08b159e4d74a}, !- Schedule Type Limits Name
  {92e92aac-ab07-4f94-a75b-6e5fd957949d}, !- Default Day Schedule Name
  {0cd4982a-77f0-4380-b08d-5bf75603ba2c}, !- Summer Design Day Schedule Name
  {8d3ce60b-b23d-40c6-ba3f-29b6ae56bc0b}; !- Winter Design Day Schedule Name

OS:Schedule:Day,
  {92e92aac-ab07-4f94-a75b-6e5fd957949d}, !- Handle
  OfficeMedium BLDG_EQUIP_SCH_2013_Sat,   !- Name
  {c617a417-df39-4257-8da1-08b159e4d74a}, !- Schedule Type Limits Name
  ,                                       !- Interpolate to Timestep
  6,                                      !- Hour 1
  0,                                      !- Minute 1
  0.2307553806,                           !- Value Until Time 1
  8,                                      !- Hour 2
  0,                                      !- Minute 2
  0.381234796,                            !- Value Until Time 2
  12,                                     !- Hour 3
  0,                                      !- Minute 3
  0.476543495,                            !- Value Until Time 3
  17,                                     !- Hour 4
  0,                                      !- Minute 4
  0.3335804465,                           !- Value Until Time 4
  19,                                     !- Hour 5
  0,                                      !- Minute 5
  0.285926097,                            !- Value Until Time 5
  24,                                     !- Hour 6
  0,                                      !- Minute 6
  0.2307553806;                           !- Value Until Time 6

OS:Schedule:Day,
  {0611e23e-36ac-4d6d-a4fa-81cf41f893a7}, !- Handle
  OfficeMedium BLDG_EQUIP_SCH_2013_SmrDsn, !- Name
  {c617a417-df39-4257-8da1-08b159e4d74a}, !- Schedule Type Limits Name
  ,                                       !- Interpolate to Timestep
  24,                                     !- Hour 1
  0,                                      !- Minute 1
  1;                                      !- Value Until Time 1

OS:Schedule:Day,
  {d99b7a26-7b07-4471-8408-a0a3d2a7f905}, !- Handle
  OfficeMedium BLDG_EQUIP_SCH_2013_WntrDsn, !- Name
  {c617a417-df39-4257-8da1-08b159e4d74a}, !- Schedule Type Limits Name
  ,                                       !- Interpolate to Timestep
  24,                                     !- Hour 1
  0,                                      !- Minute 1
  0;                                      !- Value Until Time 1

OS:Schedule:Day,
  {ca2d4877-c1c1-4e30-990a-064fa3e02db5}, !- Handle
  OfficeMedium BLDG_EQUIP_SCH_2013_Sun,   !- Name
  {c617a417-df39-4257-8da1-08b159e4d74a}, !- Schedule Type Limits Name
  ,                                       !- Interpolate to Timestep
  6,                                      !- Hour 1
  0,                                      !- Minute 1
  0.2307553806,                           !- Value Until Time 1
  18,                                     !- Hour 2
  0,                                      !- Minute 2
  0.288107175,                            !- Value Until Time 2
  24,                                     !- Hour 3
  0,                                      !- Minute 3
  0.2307553806;                           !- Value Until Time 3

OS:Schedule:Day,
  {a73da2ed-77ae-4fa5-8f70-7ca7f10f6cdc}, !- Handle
  OfficeMedium BLDG_EQUIP_SCH_2013_Wkdy,  !- Name
  {c617a417-df39-4257-8da1-08b159e4d74a}, !- Schedule Type Limits Name
  ,                                       !- Interpolate to Timestep
  6,                                      !- Hour 1
  0,                                      !- Minute 1
  0.3076738408,                           !- Value Until Time 1
  8,                                      !- Hour 2
  0,                                      !- Minute 2
  0.381234796,                            !- Value Until Time 2
  12,                                     !- Hour 3
  0,                                      !- Minute 3
  0.857778291,                            !- Value Until Time 3
  13,                                     !- Hour 4
  0,                                      !- Minute 4
  0.762469592,                            !- Value Until Time 4
  17,                                     !- Hour 5
  0,                                      !- Minute 5
  0.857778291,                            !- Value Until Time 5
  18,                                     !- Hour 6
  0,                                      !- Minute 6
  0.476543495,                            !- Value Until Time 6
  24,                                     !- Hour 7
  0,                                      !- Minute 7
  0.381234796;                            !- Value Until Time 7

OS:Schedule:Day,
  {0cd4982a-77f0-4380-b08d-5bf75603ba2c}, !- Handle
  OfficeMedium BLDG_EQUIP_SCH_2013_SmrDsn 1, !- Name
  {c617a417-df39-4257-8da1-08b159e4d74a}, !- Schedule Type Limits Name
  ,                                       !- Interpolate to Timestep
  24,                                     !- Hour 1
  0,                                      !- Minute 1
  1;                                      !- Value Until Time 1

OS:Schedule:Day,
  {8d3ce60b-b23d-40c6-ba3f-29b6ae56bc0b}, !- Handle
  OfficeMedium BLDG_EQUIP_SCH_2013_WntrDsn 1, !- Name
  {c617a417-df39-4257-8da1-08b159e4d74a}, !- Schedule Type Limits Name
  ,                                       !- Interpolate to Timestep
  24,                                     !- Hour 1
  0,                                      !- Minute 1
  0;                                      !- Value Until Time 1

OS:Schedule:Rule,
  {a96fa0a0-e281-42f0-8134-0613c7dff16f}, !- Handle
  Schedule Rule 2,                        !- Name
  {7e1d8ac0-95bc-4cf4-abe3-253338694552}, !- Schedule Ruleset Name
  0,                                      !- Rule Order
  {eef18ff3-198e-4bd7-9acf-d4fdcdd7aaab}, !- Day Schedule Name
  Yes,                                    !- Apply Sunday
  No,                                     !- Apply Monday
  No,                                     !- Apply Tuesday
  No,                                     !- Apply Wednesday
  No,                                     !- Apply Thursday
  No,                                     !- Apply Friday
  No,                                     !- Apply Saturday
  DateRange,                              !- Date Specification Type
  1,                                      !- Start Month
  1,                                      !- Start Day
  12,                                     !- End Month
  31;                                     !- End Day

OS:Schedule:Day,
  {eef18ff3-198e-4bd7-9acf-d4fdcdd7aaab}, !- Handle
  Schedule Day 2,                         !- Name
  {c617a417-df39-4257-8da1-08b159e4d74a}, !- Schedule Type Limits Name
  ,                                       !- Interpolate to Timestep
  6,                                      !- Hour 1
  0,                                      !- Minute 1
  0.2307553806,                           !- Value Until Time 1
  18,                                     !- Hour 2
  0,                                      !- Minute 2
  0.288107175,                            !- Value Until Time 2
  24,                                     !- Hour 3
  0,                                      !- Minute 3
  0.2307553806;                           !- Value Until Time 3

OS:Schedule:Rule,
  {65d4e555-e7ee-48d9-9dbb-b788ca9c012c}, !- Handle
  Schedule Rule 3,                        !- Name
  {7e1d8ac0-95bc-4cf4-abe3-253338694552}, !- Schedule Ruleset Name
  1,                                      !- Rule Order
  {9ece3e86-1496-410f-8c73-970ddbb2613c}, !- Day Schedule Name
  No,                                     !- Apply Sunday
  Yes,                                    !- Apply Monday
  Yes,                                    !- Apply Tuesday
  Yes,                                    !- Apply Wednesday
  Yes,                                    !- Apply Thursday
  Yes,                                    !- Apply Friday
  No,                                     !- Apply Saturday
  DateRange,                              !- Date Specification Type
  1,                                      !- Start Month
  1,                                      !- Start Day
  12,                                     !- End Month
  31;                                     !- End Day

OS:Schedule:Day,
  {9ece3e86-1496-410f-8c73-970ddbb2613c}, !- Handle
  Schedule Day 3,                         !- Name
  {c617a417-df39-4257-8da1-08b159e4d74a}, !- Schedule Type Limits Name
  ,                                       !- Interpolate to Timestep
  6,                                      !- Hour 1
  0,                                      !- Minute 1
  0.3076738408,                           !- Value Until Time 1
  8,                                      !- Hour 2
  0,                                      !- Minute 2
  0.381234796,                            !- Value Until Time 2
  12,                                     !- Hour 3
  0,                                      !- Minute 3
  0.857778291,                            !- Value Until Time 3
  13,                                     !- Hour 4
  0,                                      !- Minute 4
  0.762469592,                            !- Value Until Time 4
  17,                                     !- Hour 5
  0,                                      !- Minute 5
  0.857778291,                            !- Value Until Time 5
  18,                                     !- Hour 6
  0,                                      !- Minute 6
  0.476543495,                            !- Value Until Time 6
  24,                                     !- Hour 7
  0,                                      !- Minute 7
  0.381234796;                            !- Value Until Time 7

OS:Schedule:Ruleset,
  {977c6120-c16e-4909-89ee-0df5829f560d}, !- Handle
  Lab_INFIL_SCH_PNNL,                     !- Name
  {c617a417-df39-4257-8da1-08b159e4d74a}, !- Schedule Type Limits Name
  {8ddf73a2-e00d-4b03-a734-5ab05cb58985}, !- Default Day Schedule Name
  {2e6a9832-264a-4f83-9842-b66abe79796d}, !- Summer Design Day Schedule Name
  {bf04f7d9-79d7-4dc2-90ac-86bde5930eab}; !- Winter Design Day Schedule Name

OS:Schedule:Day,
  {8ddf73a2-e00d-4b03-a734-5ab05cb58985}, !- Handle
  Lab_INFIL_SCH_PNNL_Default,             !- Name
  {c617a417-df39-4257-8da1-08b159e4d74a}, !- Schedule Type Limits Name
  ,                                       !- Interpolate to Timestep
  24,                                     !- Hour 1
  0,                                      !- Minute 1
  1;                                      !- Value Until Time 1

OS:Schedule:Day,
  {1eded0b0-ed20-4568-9dea-234e923e02c1}, !- Handle
  Lab_INFIL_SCH_PNNL_SmrDsn,              !- Name
  {c617a417-df39-4257-8da1-08b159e4d74a}, !- Schedule Type Limits Name
  ,                                       !- Interpolate to Timestep
  6,                                      !- Hour 1
  0,                                      !- Minute 1
  1,                                      !- Value Until Time 1
  22,                                     !- Hour 2
  0,                                      !- Minute 2
  0.25,                                   !- Value Until Time 2
  24,                                     !- Hour 3
  0,                                      !- Minute 3
  1;                                      !- Value Until Time 3

OS:Schedule:Day,
  {0ebc2fe9-0088-4d65-b5cb-b43cb580f73f}, !- Handle
  Lab_INFIL_SCH_PNNL_WntrDsn,             !- Name
  {c617a417-df39-4257-8da1-08b159e4d74a}, !- Schedule Type Limits Name
  ,                                       !- Interpolate to Timestep
  6,                                      !- Hour 1
  0,                                      !- Minute 1
  1,                                      !- Value Until Time 1
  18,                                     !- Hour 2
  0,                                      !- Minute 2
  0.25,                                   !- Value Until Time 2
  24,                                     !- Hour 3
  0,                                      !- Minute 3
  1;                                      !- Value Until Time 3

OS:Schedule:Day,
  {a0dac0a3-ae03-41ca-9cb8-c0275fe478db}, !- Handle
  Lab_INFIL_SCH_PNNL_Wkdy,                !- Name
  {c617a417-df39-4257-8da1-08b159e4d74a}, !- Schedule Type Limits Name
  ,                                       !- Interpolate to Timestep
  6,                                      !- Hour 1
  0,                                      !- Minute 1
  1,                                      !- Value Until Time 1
  22,                                     !- Hour 2
  0,                                      !- Minute 2
  0.25,                                   !- Value Until Time 2
  24,                                     !- Hour 3
  0,                                      !- Minute 3
  1;                                      !- Value Until Time 3

OS:Schedule:Day,
  {181f0360-1c9d-48d0-9aca-3c1f4f22f975}, !- Handle
  Lab_INFIL_SCH_PNNL_Sat,                 !- Name
  {c617a417-df39-4257-8da1-08b159e4d74a}, !- Schedule Type Limits Name
  ,                                       !- Interpolate to Timestep
  6,                                      !- Hour 1
  0,                                      !- Minute 1
  1,                                      !- Value Until Time 1
  18,                                     !- Hour 2
  0,                                      !- Minute 2
  0.25,                                   !- Value Until Time 2
  24,                                     !- Hour 3
  0,                                      !- Minute 3
  1;                                      !- Value Until Time 3

OS:Schedule:Day,
  {2e6a9832-264a-4f83-9842-b66abe79796d}, !- Handle
  Lab_INFIL_SCH_PNNL_SmrDsn 1,            !- Name
  {c617a417-df39-4257-8da1-08b159e4d74a}, !- Schedule Type Limits Name
  ,                                       !- Interpolate to Timestep
  6,                                      !- Hour 1
  0,                                      !- Minute 1
  1,                                      !- Value Until Time 1
  22,                                     !- Hour 2
  0,                                      !- Minute 2
  0.25,                                   !- Value Until Time 2
  24,                                     !- Hour 3
  0,                                      !- Minute 3
  1;                                      !- Value Until Time 3

OS:Schedule:Day,
  {bf04f7d9-79d7-4dc2-90ac-86bde5930eab}, !- Handle
  Lab_INFIL_SCH_PNNL_WntrDsn 1,           !- Name
  {c617a417-df39-4257-8da1-08b159e4d74a}, !- Schedule Type Limits Name
  ,                                       !- Interpolate to Timestep
  6,                                      !- Hour 1
  0,                                      !- Minute 1
  1,                                      !- Value Until Time 1
  18,                                     !- Hour 2
  0,                                      !- Minute 2
  0.25,                                   !- Value Until Time 2
  24,                                     !- Hour 3
  0,                                      !- Minute 3
  1;                                      !- Value Until Time 3

OS:Schedule:Rule,
  {c48ae963-10d4-4384-a19a-bd2c4718c091}, !- Handle
  Schedule Rule 4,                        !- Name
  {977c6120-c16e-4909-89ee-0df5829f560d}, !- Schedule Ruleset Name
  0,                                      !- Rule Order
  {b3916d1b-a338-4d12-9b5a-abbe0df765ea}, !- Day Schedule Name
  No,                                     !- Apply Sunday
  Yes,                                    !- Apply Monday
  Yes,                                    !- Apply Tuesday
  Yes,                                    !- Apply Wednesday
  Yes,                                    !- Apply Thursday
  Yes,                                    !- Apply Friday
  No,                                     !- Apply Saturday
  DateRange,                              !- Date Specification Type
  1,                                      !- Start Month
  1,                                      !- Start Day
  12,                                     !- End Month
  31;                                     !- End Day

OS:Schedule:Day,
  {b3916d1b-a338-4d12-9b5a-abbe0df765ea}, !- Handle
  Schedule Day 4,                         !- Name
  {c617a417-df39-4257-8da1-08b159e4d74a}, !- Schedule Type Limits Name
  ,                                       !- Interpolate to Timestep
  6,                                      !- Hour 1
  0,                                      !- Minute 1
  1,                                      !- Value Until Time 1
  22,                                     !- Hour 2
  0,                                      !- Minute 2
  0.25,                                   !- Value Until Time 2
  24,                                     !- Hour 3
  0,                                      !- Minute 3
  1;                                      !- Value Until Time 3

OS:Schedule:Rule,
  {2f1b6ebb-867d-4ec8-8cf5-ba92f214edc4}, !- Handle
  Schedule Rule 5,                        !- Name
  {977c6120-c16e-4909-89ee-0df5829f560d}, !- Schedule Ruleset Name
  1,                                      !- Rule Order
  {59fca1d6-d51b-4fad-bb8b-b4a5ea6d4d5a}, !- Day Schedule Name
  No,                                     !- Apply Sunday
  No,                                     !- Apply Monday
  No,                                     !- Apply Tuesday
  No,                                     !- Apply Wednesday
  No,                                     !- Apply Thursday
  No,                                     !- Apply Friday
  Yes,                                    !- Apply Saturday
  DateRange,                              !- Date Specification Type
  1,                                      !- Start Month
  1,                                      !- Start Day
  12,                                     !- End Month
  31;                                     !- End Day

OS:Schedule:Day,
  {59fca1d6-d51b-4fad-bb8b-b4a5ea6d4d5a}, !- Handle
  Schedule Day 5,                         !- Name
  {c617a417-df39-4257-8da1-08b159e4d74a}, !- Schedule Type Limits Name
  ,                                       !- Interpolate to Timestep
  6,                                      !- Hour 1
  0,                                      !- Minute 1
  1,                                      !- Value Until Time 1
  18,                                     !- Hour 2
  0,                                      !- Minute 2
  0.25,                                   !- Value Until Time 2
  24,                                     !- Hour 3
  0,                                      !- Minute 3
  1;                                      !- Value Until Time 3

OS:Schedule:Ruleset,
  {7ad179f3-9130-4f5c-9e38-a537ad9c5d8f}, !- Handle
  OfficeMedium HTGSETP_SCH_YES_OPTIMUM,   !- Name
  {65b64539-91cb-4e23-ab1c-46666b67baec}, !- Schedule Type Limits Name
  {bf9c5815-2ab4-48df-bcb3-67e478fe2b88}, !- Default Day Schedule Name
  {de1f0f5f-5e12-44ce-935f-2b0017bd987c}, !- Summer Design Day Schedule Name
  {b3f76674-9821-42a6-b62f-c43f874f5527}; !- Winter Design Day Schedule Name

OS:Schedule:Day,
  {bf9c5815-2ab4-48df-bcb3-67e478fe2b88}, !- Handle
  OfficeMedium HTGSETP_SCH_YES_OPTIMUM_Default, !- Name
  {65b64539-91cb-4e23-ab1c-46666b67baec}, !- Schedule Type Limits Name
  ,                                       !- Interpolate to Timestep
  24,                                     !- Hour 1
  0,                                      !- Minute 1
  15.6;                                   !- Value Until Time 1

OS:Schedule:Day,
  {53ee438c-a4bd-4b1a-882b-305282a432c9}, !- Handle
  OfficeMedium HTGSETP_SCH_YES_OPTIMUM_SmrDsn, !- Name
  {65b64539-91cb-4e23-ab1c-46666b67baec}, !- Schedule Type Limits Name
  ,                                       !- Interpolate to Timestep
  24,                                     !- Hour 1
  0,                                      !- Minute 1
  15.6;                                   !- Value Until Time 1

OS:Schedule:Day,
  {3b4df34f-9f68-4465-ad8a-543909a30a56}, !- Handle
  OfficeMedium HTGSETP_SCH_YES_OPTIMUM_WntrDsn, !- Name